61

Mn         2.948790       -0.000250        0.124710
C          3.970220        1.318300        0.856790
C          3.961820       -0.000140       -1.354900
C          3.970010       -1.319100        0.856540
Br         1.734680       -0.000070        2.448050
N          1.601340       -1.485920       -0.673520
N          1.601500        1.485660       -0.673260
C          1.971590       -2.281080       -1.693040
C          1.116490       -3.201840       -2.279620
C         -0.195140       -3.299160       -1.819640
C         -0.595130       -2.476850       -0.769160
C          0.352300       -1.609980       -0.218580
C          0.352190        1.609200       -0.218940
C         -0.594860        2.476840       -0.768960
C          1.972350        2.281920       -1.691710
C          1.117620        3.203360       -2.277740
C         -0.194220        3.300310       -1.818290
C         -1.977320        2.485540       -0.214650
C         -1.977440       -2.485600       -0.214480
C         -2.824650       -1.372060       -0.364770
C         -2.824570        1.372020       -0.364870
C         -4.098180       -1.374490        0.219790
C         -4.098140        1.374580        0.219600
C         -2.448900        3.606310        0.475960
C         -2.448940       -3.606220        0.476400
C         -3.718960       -3.608220        1.048490
C         -3.718980        3.608470        1.047910
C         -4.536260        2.486660        0.942500
C         -4.536240       -2.486430        0.942930
S         -2.320820       -0.000070       -1.379320
S         -5.201370        0.000050       -0.001310
H          1.476750       -3.825370       -3.098040
H         -0.899480       -3.997410       -2.276760
H          0.087560       -1.004570        0.647730
H          0.086890        1.002800        0.646490
H          2.996310        2.182860       -2.052740
H          1.478340        3.827770       -3.095300
H         -0.898240        3.999210       -2.274940
H         -1.797290        4.475860        0.583610
H         -1.797340       -4.475780        0.584100
H         -4.067830       -4.483790        1.598660
H         -4.067880        4.484150        1.597870
H         -5.521210        2.471940        1.413200
H         -5.521160       -2.471620        1.413710
O          4.667850       -0.000030       -2.263070
O          4.601510       -2.153780        1.317690
O          4.601970        2.152850        1.317850
H          2.995350       -2.181690       -2.054530
N         -1.356801       -1.356801        4.070403
C         -1.043492       -1.670110        5.140108
C         -0.654390       -2.059999        6.469769
C         -1.327064       -3.109159        7.113322
C          0.395140       -1.387386        7.113365
C         -0.945517       -3.480622        8.399094
H         -2.142251       -3.626427        6.604906
C          0.766519       -1.768833        8.398982
H          0.912314       -0.572410        6.604518
C          0.098388       -2.812721        9.040715
H         -1.466610       -4.296585        8.902911
H          1.582540       -1.247943        8.902923
H          0.393696       -3.108059        10.049572
