61

Mn         0.000000        0.000000        0.000000
C         -0.096787        1.832300        0.022954
C          0.000000        0.000000       -1.823415
C          1.832823        0.000000       -0.029381
Br         1.732051        1.732051        1.732051
N         -0.049220       -2.154816        0.093317
N         -2.151526       -0.140364        0.095154
C          0.523852       -2.939878       -0.835499
C          0.576091       -4.321822       -0.716180
C          0.037873       -4.932623        0.414952
C         -0.567239       -4.132050        1.383305
C         -0.594216       -2.757513        1.151787
C         -2.760188       -0.339992        1.268031
C         -4.084042       -0.750517        1.405275
C         -2.908210       -0.245040       -1.010247
C         -4.257610       -0.571188       -0.972755
C         -4.857197       -0.855730        0.250803
C         -4.546123       -1.147628        2.765677
C         -1.060725       -4.645082        2.692419
C         -2.360350       -4.394350        3.174691
C         -4.295103       -2.455771        3.220642
C         -2.708796       -4.776982        4.477597
C         -4.623496       -2.816821        4.533782
C         -5.162457       -0.233945        3.623399
C         -0.161928       -5.338348        3.511871
C         -0.520395       -5.734960        4.797112
C         -5.494794       -0.600318        4.926418
C         -5.208418       -1.880920        5.390753
C         -1.783615       -5.431391        5.293591
S         -3.595609       -3.667170        2.117793
S         -4.340590       -4.472490        5.112149
H          1.050868       -4.910252       -1.501393
H          0.089512       -6.015972        0.541820
H         -1.073149       -2.122659        1.890007
H         -2.162815       -0.196945        2.165201
H         -2.422597       -0.069088       -1.969468
H         -4.819130       -0.632196       -1.905051
H         -5.900987       -1.170596        0.306162
H         -5.365215        0.778195        3.268192
H          0.846571       -5.537317        3.143590
H          0.199859       -6.260226        5.426309
H         -5.965885        0.124316        5.592514
H         -5.442802       -2.161933        6.419312
H         -2.059309       -5.704272        6.313986
O          0.062549        0.019147       -2.965367
O          2.973770       -0.005212       -0.045177
O         -0.178828        2.969801        0.039098
H          0.966498       -2.445973       -1.701717
N          0.120502       -0.064347        2.030549
C          0.175699       -0.320412        3.155600
C          0.098802       -0.786638        4.506955
C          1.180585       -0.657823        5.388995
C         -1.083953       -1.436083        4.902649
C          1.071006       -1.188204        6.670284
H          2.093017       -0.153066        5.069325
C         -1.174899       -1.964283        6.184139
H         -1.926369       -1.528664        4.214107
C         -0.098529       -1.841089        7.064473
H          1.906343       -1.094718        7.365779
H         -2.088689       -2.476072        6.491824
H         -0.172108       -2.258470        8.070441
