61

Mn         0.000000        0.000000        0.000000
C         -0.088308        1.819151        0.026940
C         -0.000000       -0.000000       -1.793175
C          1.821291        0.000000        0.027014
Br         0.214058        0.225247        2.602963
N         -0.001982       -2.156261        0.102668
N         -2.153594       -0.106664        0.102610
C          0.387337       -2.900547       -0.947692
C          0.338935       -4.286450       -0.948566
C         -0.157831       -4.949052        0.171974
C         -0.571673       -4.191145        1.264679
C         -0.445729       -2.801971        1.183691
C         -2.777031       -0.582027        1.183258
C         -4.158549       -0.774514        1.264388
C         -2.915909        0.247394       -0.947304
C         -4.297876        0.132439       -0.948046
C         -4.935644       -0.396524        0.172163
C         -4.735647       -1.367725        2.502770
C         -1.135906       -4.796150        2.503283
C         -2.482942       -4.595857        2.857825
C         -4.470001       -2.703353        2.857529
C         -2.978204       -5.119284        4.059629
C         -4.968935       -3.223400        4.059281
C         -5.546552       -0.593984        3.338960
C         -0.323606       -5.568060        3.339788
C         -0.822041       -6.094195        4.529320
C         -6.048087       -1.117344        4.528410
C         -5.741926       -2.422451        4.903213
C         -2.140592       -5.852030        4.903861
S         -3.584962       -3.763689        1.735969
S         -4.687500       -4.920902        4.500340
H          0.676631       -4.836062       -1.827358
H         -0.231127       -6.038457        0.192738
H         -0.697287       -2.188191        2.048037
H         -2.151745       -0.804686        2.047269
H         -2.402101        0.643166       -1.823668
H         -4.863251        0.444114       -1.826465
H         -6.020291       -0.521980        0.193049
H         -5.763454        0.439079        3.059614
H          0.718845       -5.734385        3.060595
H         -0.172219       -6.681402        5.180427
H         -6.666494       -0.496878        5.179253
H         -6.108418       -2.828516        5.848039
H         -2.528419       -6.237680        5.848734
O          0.047911        0.050362       -2.941399
O          2.964743       -0.009675        0.050819
O         -0.153486        2.960798        0.050427
H          0.757150       -2.368219       -1.824335
N         -1.206045       -1.206045        3.618136
C         -0.892736       -0.892736        4.687841
C         -0.502848       -0.503634        6.017502
C          0.546313       -1.176308        6.661055
C         -1.175461        0.545896        6.661098
C          0.917776       -0.794762        7.946827
H          1.063580       -1.991496        6.152639
C         -0.794013        0.917274        7.946715
H         -1.990437        1.063070        6.152251
C          0.249875        0.249144        8.588448
H          1.733739       -1.315854        8.450644
H         -1.314903        1.733295        8.450656
H          0.545213        0.544452        9.597305
